/*--------------------------------*- C++ -*----------------------------------*\
| =========                 |                                                 |
| \\      /  F ield         | OpenFOAM: The Open Source CFD Toolbox           |
|  \\    /   O peration     | Version:  v1912                                 |
|   \\  /    A nd           | Website:  www.openfoam.com                      |
|    \\/     M anipulation  |                                                 |
\*---------------------------------------------------------------------------*/
FoamFile
{
    version     2.0;
    format      ascii;
    class       dictionary;
    location    "constant";
    object      transportProperties;
}
// * * * * * * * * * * * * * * * * * * * * * * * * * * * * * * * * * * * * * //

// transportModel  Newtonian;
// nu              1e-05;

//transportModel  myCrossPowerLaw;
transportModel  newCrossPowerLaw;
myCrossPowerLawCoeffs
{
    nu0         0.01;
    nuInf       10;
    m           0.4;
    n           3;
}

// ************************************************************************* //
